76

C         11.93693       -0.01489       23.74332
C         13.16366       -0.01197       24.44822
C         13.14588       -0.00790       25.82923
C         11.92773       -0.01553       26.51634
C         10.71801       -0.00751       25.83736
C         10.72912       -0.01062       24.45980
N         11.90911        0.00189       22.38541
C         14.45764       -0.01742       23.68058
N         11.92979       -0.01927       27.94954
O         13.00151       -0.00310       28.55823
O         10.84934       -0.03122       28.53877
H         13.94539        0.00000       26.30399
H          9.91323        0.00000       26.30399
H          9.92263       -0.01031       23.99630
H         11.15603        0.01498       21.97112
H         12.64472       -0.00024       21.94012
H         14.54465        0.80600       23.19399
H         14.46168       -0.75455       23.06499
C         10.28472        3.88511       19.35932
C         11.51145        3.88803       20.06422
C         11.49367        3.89210       21.44523
C         10.27552        3.88447       22.13234
C          9.06580        3.89249       21.45336
C          9.07691        3.88938       20.07580
N         10.25690        3.90189       18.00141
C         12.80543        3.88258       19.29658
N         10.27758        3.88073       23.56554
O         11.34930        3.89690       24.17423
O          9.19713        3.86878       24.15477
H         12.29318        3.90000       21.91999
H          8.26102        3.90000       21.91999
H          8.27042        3.88969       19.61230
H          9.50382        3.91498       17.58712
H         10.99251        3.89976       17.55612
H         13.53984        3.79339       19.90775
H         12.89244        4.70600       18.80999
H         12.80947        3.14545       18.68099
C         13.58913        3.88511       28.12732
C         14.81586        3.88803       28.83222
C         14.79808        3.89210       30.21323
C         13.57993        3.88447       30.90034
C         12.37021        3.89249       30.22136
C         12.38132        3.88938       28.84380
N         13.56131        3.90189       26.76941
C         16.10984        3.88258       28.06458
N         13.58199        3.88073       32.33354
O         14.65371        3.89690       32.94223
O         12.50154        3.86878       32.92277
H         15.59759        3.90000       30.68799
H         11.56543        3.90000       30.68799
H         11.57483        3.88969       28.38030
H         12.80823        3.91498       26.35512
H         14.29692        3.89976       26.32412
H         16.84425        3.79339       28.67575
H         16.19685        4.70600       27.57799
H         16.11388        3.14545       27.44899
C         11.93693        7.78511       23.74332
C         13.16366        7.78803       24.44822
C         13.14588        7.79210       25.82923
C         11.92773        7.78447       26.51634
C         10.71801        7.79249       25.83736
C         10.72912        7.78938       24.45980
N         11.90911        7.80189       22.38541
C         14.45764        7.78258       23.68058
N         11.92979        7.78073       27.94954
O         13.00151        7.79690       28.55823
O         10.84934        7.76878       28.53877
H         13.94539        7.80000       26.30399
H          9.91323        7.80000       26.30399
H          9.92263        7.78969       23.99630
H         11.15603        7.81498       21.97112
H         12.64472        7.79976       21.94012
H         15.19205        7.69339       24.29175
H         14.54465        8.60600       23.19399
H         14.46168        7.04545       23.06499
H         15.27618       -0.11739       24.36241
